/*---------------------------------------------------------------------------*\
| =========                 |                                                 |
| \\      /  F ield         | OpenFOAM: The Open Source CFD Toolbox           |
|  \\    /   O peration     | Version:  2412                                  |
|   \\  /    A nd           | Website:  www.openfoam.com                      |
|    \\/     M anipulation  |                                                 |
\*---------------------------------------------------------------------------*/
Build  : _8dbc61e11c-20241220 OPENFOAM=2412 version=v2412
Arch   : "LSB;label=32;scalar=64"
Exec   : icoFoam
Date   : May 06 2025
Time   : 12:45:43
Host   : giova-santech
PID    : 131881
I/O    : uncollated
Case   : /home/giova/OpenFOAM_laboratory/tutorials_in_classe/T_shape
nProcs : 1
trapFpe: Floating point exception trapping enabled (FOAM_SIGFPE).
fileModificationChecking : Monitoring run-time modified files using timeStampMaster (fileModificationSkew 5, maxFileModificationPolls 20)
allowSystemOperations : Allowing user-supplied system call operations

// * * * * * * * * * * * * * * * * * * * * * * * * * * * * * * * * * * * * * //
Create time

Create mesh for time = 0


PISO: Operating solver in PISO mode

Reading transportProperties

Reading field p

Reading field U

Reading/calculating face flux field phi


Starting time loop

Time = 0.005

Courant Number mean: 0.00625 max: 0.5
smoothSolver:  Solving for Ux, Initial residual = 1, Final residual = 7.73798e-06, No Iterations 19
smoothSolver:  Solving for Uy, Initial residual = 0, Final residual = 0, No Iterations 0
DICPCG:  Solving for p, Initial residual = 1, Final residual = 0.0450338, No Iterations 43
time step continuity errors : sum local = 0.000562923, global = -1.96319e-06, cumulative = -1.96319e-06
DICPCG:  Solving for p, Initial residual = 0.0072622, Final residual = 8.45826e-07, No Iterations 58
time step continuity errors : sum local = 1.54346e-06, global = 4.76327e-09, cumulative = -1.95843e-06
ExecutionTime = 0.02 s  ClockTime = 0 s

Time = 0.01

Courant Number mean: 0.817615 max: 1.73898
smoothSolver:  Solving for Ux, Initial residual = 0.41579, Final residual = 7.81447e-06, No Iterations 23
smoothSolver:  Solving for Uy, Initial residual = 0.339556, Final residual = 6.70651e-06, No Iterations 22
DICPCG:  Solving for p, Initial residual = 0.0709168, Final residual = 0.0026321, No Iterations 43
time step continuity errors : sum local = 0.000691507, global = 3.2667e-06, cumulative = 1.30827e-06
DICPCG:  Solving for p, Initial residual = 0.0108162, Final residual = 8.64395e-07, No Iterations 58
time step continuity errors : sum local = 1.27915e-06, global = -2.14256e-10, cumulative = 1.30805e-06
ExecutionTime = 0.02 s  ClockTime = 0 s

Time = 0.015

Courant Number mean: 0.818731 max: 1.522
smoothSolver:  Solving for Ux, Initial residual = 0.0633163, Final residual = 9.27484e-06, No Iterations 17
smoothSolver:  Solving for Uy, Initial residual = 0.163348, Final residual = 8.04897e-06, No Iterations 19
DICPCG:  Solving for p, Initial residual = 0.624916, Final residual = 0.022196, No Iterations 43
time step continuity errors : sum local = 0.000237972, global = -2.18449e-06, cumulative = -8.76442e-07
DICPCG:  Solving for p, Initial residual = 0.0379925, Final residual = 8.20391e-07, No Iterations 61
time step continuity errors : sum local = 1.02626e-07, global = -6.67212e-11, cumulative = -8.76509e-07
ExecutionTime = 0.03 s  ClockTime = 0 s

Time = 0.02

Courant Number mean: 0.816112 max: 1.47006
smoothSolver:  Solving for Ux, Initial residual = 0.0193091, Final residual = 6.31595e-06, No Iterations 15
smoothSolver:  Solving for Uy, Initial residual = 0.0606932, Final residual = 8.75608e-06, No Iterations 17
DICPCG:  Solving for p, Initial residual = 0.0917398, Final residual = 0.00401014, No Iterations 41
time step continuity errors : sum local = 7.89797e-05, global = -1.20291e-06, cumulative = -2.07942e-06
DICPCG:  Solving for p, Initial residual = 0.141021, Final residual = 8.08821e-07, No Iterations 62
time step continuity errors : sum local = 7.38109e-09, global = 1.34423e-10, cumulative = -2.07929e-06
ExecutionTime = 0.03 s  ClockTime = 0 s

Time = 0.025

Courant Number mean: 0.813803 max: 1.48677
smoothSolver:  Solving for Ux, Initial residual = 0.0123564, Final residual = 9.50015e-06, No Iterations 13
smoothSolver:  Solving for Uy, Initial residual = 0.0369569, Final residual = 9.47471e-06, No Iterations 16
DICPCG:  Solving for p, Initial residual = 0.0302652, Final residual = 0.00138806, No Iterations 36
time step continuity errors : sum local = 2.35272e-05, global = 1.13988e-06, cumulative = -9.39405e-07
DICPCG:  Solving for p, Initial residual = 0.0256529, Final residual = 8.84515e-07, No Iterations 59
time step continuity errors : sum local = 1.3073e-08, global = 3.12253e-10, cumulative = -9.39092e-07
ExecutionTime = 0.03 s  ClockTime = 0 s

Time = 0.03

Courant Number mean: 0.812078 max: 1.50447
smoothSolver:  Solving for Ux, Initial residual = 0.00896797, Final residual = 7.64524e-06, No Iterations 13
smoothSolver:  Solving for Uy, Initial residual = 0.0305299, Final residual = 8.80922e-06, No Iterations 16
DICPCG:  Solving for p, Initial residual = 0.0126505, Final residual = 0.000489975, No Iterations 42
time step continuity errors : sum local = 8.05495e-06, global = 1.75298e-07, cumulative = -7.63794e-07
DICPCG:  Solving for p, Initial residual = 0.0112479, Final residual = 9.2448e-07, No Iterations 57
time step continuity errors : sum local = 1.29104e-08, global = -3.56435e-10, cumulative = -7.64151e-07
ExecutionTime = 0.03 s  ClockTime = 0 s

Time = 0.035

Courant Number mean: 0.810535 max: 1.52464
smoothSolver:  Solving for Ux, Initial residual = 0.006549, Final residual = 9.54736e-06, No Iterations 12
smoothSolver:  Solving for Uy, Initial residual = 0.0266306, Final residual = 7.97192e-06, No Iterations 16
DICPCG:  Solving for p, Initial residual = 0.00881079, Final residual = 0.000427357, No Iterations 41
time step continuity errors : sum local = 6.8486e-06, global = 8.54047e-08, cumulative = -6.78746e-07
DICPCG:  Solving for p, Initial residual = 0.00808561, Final residual = 8.00747e-07, No Iterations 57
time step continuity errors : sum local = 1.13344e-08, global = 2.86288e-10, cumulative = -6.7846e-07
ExecutionTime = 0.04 s  ClockTime = 0 s

Time = 0.04

Courant Number mean: 0.809294 max: 1.53943
smoothSolver:  Solving for Ux, Initial residual = 0.00484405, Final residual = 7.49904e-06, No Iterations 12
smoothSolver:  Solving for Uy, Initial residual = 0.0234393, Final residual = 7.20753e-06, No Iterations 16
DICPCG:  Solving for p, Initial residual = 0.00729455, Final residual = 0.000278755, No Iterations 42
time step continuity errors : sum local = 4.382e-06, global = 3.09146e-09, cumulative = -6.75368e-07
DICPCG:  Solving for p, Initial residual = 0.0065021, Final residual = 6.62653e-07, No Iterations 57
time step continuity errors : sum local = 9.48603e-09, global = 1.85217e-10, cumulative = -6.75183e-07
ExecutionTime = 0.04 s  ClockTime = 0 s

Time = 0.045

Courant Number mean: 0.808332 max: 1.55227
smoothSolver:  Solving for Ux, Initial residual = 0.00361433, Final residual = 9.79936e-06, No Iterations 11
smoothSolver:  Solving for Uy, Initial residual = 0.0205921, Final residual = 6.44757e-06, No Iterations 16
DICPCG:  Solving for p, Initial residual = 0.0063018, Final residual = 0.000312619, No Iterations 33
time step continuity errors : sum local = 4.84187e-06, global = 9.32681e-09, cumulative = -6.65856e-07
DICPCG:  Solving for p, Initial residual = 0.00550816, Final residual = 6.46364e-07, No Iterations 57
time step continuity errors : sum local = 9.32763e-09, global = 1.38148e-10, cumulative = -6.65718e-07
ExecutionTime = 0.04 s  ClockTime = 0 s

Time = 0.05

Courant Number mean: 0.807594 max: 1.56163
smoothSolver:  Solving for Ux, Initial residual = 0.00272586, Final residual = 7.86595e-06, No Iterations 11
smoothSolver:  Solving for Uy, Initial residual = 0.0180012, Final residual = 9.41248e-06, No Iterations 15
DICPCG:  Solving for p, Initial residual = 0.00559041, Final residual = 0.000248937, No Iterations 43
time step continuity errors : sum local = 3.81176e-06, global = -1.61256e-09, cumulative = -6.67331e-07
DICPCG:  Solving for p, Initial residual = 0.00488079, Final residual = 9.6729e-07, No Iterations 56
time step continuity errors : sum local = 1.40252e-08, global = 6.99555e-11, cumulative = -6.67261e-07
ExecutionTime = 0.04 s  ClockTime = 0 s

Time = 0.055

Courant Number mean: 0.806989 max: 1.56802
smoothSolver:  Solving for Ux, Initial residual = 0.00207395, Final residual = 6.3822e-06, No Iterations 11
smoothSolver:  Solving for Uy, Initial residual = 0.0158242, Final residual = 8.4108e-06, No Iterations 15
DICPCG:  Solving for p, Initial residual = 0.00487099, Final residual = 0.000209558, No Iterations 42
time step continuity errors : sum local = 3.17978e-06, global = 1.62977e-08, cumulative = -6.50963e-07
DICPCG:  Solving for p, Initial residual = 0.00420892, Final residual = 8.49268e-07, No Iterations 56
time step continuity errors : sum local = 1.23495e-08, global = 1.52691e-11, cumulative = -6.50948e-07
ExecutionTime = 0.04 s  ClockTime = 0 s

Time = 0.06

Courant Number mean: 0.806463 max: 1.57223
smoothSolver:  Solving for Ux, Initial residual = 0.00159116, Final residual = 8.51688e-06, No Iterations 10
smoothSolver:  Solving for Uy, Initial residual = 0.0138619, Final residual = 7.46152e-06, No Iterations 15
DICPCG:  Solving for p, Initial residual = 0.00417553, Final residual = 0.00017839, No Iterations 42
time step continuity errors : sum local = 2.68723e-06, global = 1.61333e-08, cumulative = -6.34815e-07
DICPCG:  Solving for p, Initial residual = 0.00359408, Final residual = 7.54205e-07, No Iterations 56
time step continuity errors : sum local = 1.0989e-08, global = -3.76543e-12, cumulative = -6.34818e-07
ExecutionTime = 0.05 s  ClockTime = 0 s

Time = 0.065

Courant Number mean: 0.80599 max: 1.5748
smoothSolver:  Solving for Ux, Initial residual = 0.00123941, Final residual = 7.0087e-06, No Iterations 10
smoothSolver:  Solving for Uy, Initial residual = 0.0121241, Final residual = 6.54823e-06, No Iterations 15
DICPCG:  Solving for p, Initial residual = 0.0036307, Final residual = 0.0001609, No Iterations 42
time step continuity errors : sum local = 2.40972e-06, global = 2.19207e-08, cumulative = -6.12898e-07
DICPCG:  Solving for p, Initial residual = 0.00310052, Final residual = 6.44127e-07, No Iterations 56
time step continuity errors : sum local = 9.39271e-09, global = -1.11368e-11, cumulative = -6.12909e-07
ExecutionTime = 0.05 s  ClockTime = 0 s

Time = 0.07

Courant Number mean: 0.805576 max: 1.57619
smoothSolver:  Solving for Ux, Initial residual = 0.000976007, Final residual = 9.50119e-06, No Iterations 9
smoothSolver:  Solving for Uy, Initial residual = 0.010575, Final residual = 9.43558e-06, No Iterations 14
DICPCG:  Solving for p, Initial residual = 0.00315165, Final residual = 0.000140539, No Iterations 42
time step continuity errors : sum local = 2.09487e-06, global = 2.52328e-08, cumulative = -5.87676e-07
DICPCG:  Solving for p, Initial residual = 0.00266887, Final residual = 9.2159e-07, No Iterations 55
time step continuity errors : sum local = 1.34511e-08, global = -4.67944e-11, cumulative = -5.87723e-07
ExecutionTime = 0.05 s  ClockTime = 0 s

Time = 0.075

Courant Number mean: 0.805217 max: 1.57673
smoothSolver:  Solving for Ux, Initial residual = 0.000778586, Final residual = 7.90928e-06, No Iterations 9
smoothSolver:  Solving for Uy, Initial residual = 0.00917613, Final residual = 8.18979e-06, No Iterations 14
DICPCG:  Solving for p, Initial residual = 0.00273318, Final residual = 0.000124065, No Iterations 42
time step continuity errors : sum local = 1.8422e-06, global = 2.6879e-08, cumulative = -5.60844e-07
DICPCG:  Solving for p, Initial residual = 0.00230047, Final residual = 7.91558e-07, No Iterations 55
time step continuity errors : sum local = 1.15546e-08, global = -5.78788e-11, cumulative = -5.60902e-07
ExecutionTime = 0.05 s  ClockTime = 0 s

Time = 0.08

Courant Number mean: 0.804885 max: 1.57668
smoothSolver:  Solving for Ux, Initial residual = 0.000627398, Final residual = 6.60764e-06, No Iterations 9
smoothSolver:  Solving for Uy, Initial residual = 0.00792478, Final residual = 7.06991e-06, No Iterations 14
DICPCG:  Solving for p, Initial residual = 0.00235745, Final residual = 0.000108253, No Iterations 42
time step continuity errors : sum local = 1.60232e-06, global = 2.72862e-08, cumulative = -5.33616e-07
DICPCG:  Solving for p, Initial residual = 0.00197259, Final residual = 9.35623e-07, No Iterations 54
time step continuity errors : sum local = 1.36583e-08, global = -1.31918e-10, cumulative = -5.33747e-07
ExecutionTime = 0.06 s  ClockTime = 0 s

Time = 0.085

Courant Number mean: 0.804598 max: 1.57624
smoothSolver:  Solving for Ux, Initial residual = 0.000510667, Final residual = 9.0393e-06, No Iterations 8
smoothSolver:  Solving for Uy, Initial residual = 0.00680933, Final residual = 6.07364e-06, No Iterations 14
DICPCG:  Solving for p, Initial residual = 0.00201113, Final residual = 9.09946e-05, No Iterations 42
time step continuity errors : sum local = 1.34336e-06, global = 2.62269e-08, cumulative = -5.07521e-07
DICPCG:  Solving for p, Initial residual = 0.0016732, Final residual = 7.60887e-07, No Iterations 54
time step continuity errors : sum local = 1.11107e-08, global = -1.19388e-10, cumulative = -5.0764e-07
ExecutionTime = 0.06 s  ClockTime = 0 s

Time = 0.09

Courant Number mean: 0.80435 max: 1.57555
smoothSolver:  Solving for Ux, Initial residual = 0.000420932, Final residual = 7.58986e-06, No Iterations 8
smoothSolver:  Solving for Uy, Initial residual = 0.00582318, Final residual = 8.55492e-06, No Iterations 13
DICPCG:  Solving for p, Initial residual = 0.00171318, Final residual = 7.81613e-05, No Iterations 42
time step continuity errors : sum local = 1.15143e-06, global = 2.46704e-08, cumulative = -4.8297e-07
DICPCG:  Solving for p, Initial residual = 0.00141924, Final residual = 8.33483e-07, No Iterations 53
time step continuity errors : sum local = 1.21684e-08, global = -4.68647e-11, cumulative = -4.83016e-07
ExecutionTime = 0.06 s  ClockTime = 0 s

Time = 0.095

Courant Number mean: 0.804146 max: 1.57472
smoothSolver:  Solving for Ux, Initial residual = 0.000349715, Final residual = 6.37202e-06, No Iterations 8
smoothSolver:  Solving for Uy, Initial residual = 0.00496072, Final residual = 7.27581e-06, No Iterations 13
DICPCG:  Solving for p, Initial residual = 0.00145521, Final residual = 6.63532e-05, No Iterations 42
time step continuity errors : sum local = 9.75733e-07, global = 2.2702e-08, cumulative = -4.60314e-07
DICPCG:  Solving for p, Initial residual = 0.00120126, Final residual = 9.63055e-07, No Iterations 52
time step continuity errors : sum local = 1.40581e-08, global = 1.03516e-10, cumulative = -4.60211e-07
ExecutionTime = 0.06 s  ClockTime = 0 s

Time = 0.1

Courant Number mean: 0.803975 max: 1.57383
smoothSolver:  Solving for Ux, Initial residual = 0.00029222, Final residual = 8.74594e-06, No Iterations 7
smoothSolver:  Solving for Uy, Initial residual = 0.00420326, Final residual = 6.16214e-06, No Iterations 13
DICPCG:  Solving for p, Initial residual = 0.00122741, Final residual = 5.29578e-05, No Iterations 42
time step continuity errors : sum local = 7.77607e-07, global = 1.97485e-08, cumulative = -4.40462e-07
DICPCG:  Solving for p, Initial residual = 0.00100906, Final residual = 9.7151e-07, No Iterations 51
time step continuity errors : sum local = 1.41835e-08, global = 1.96779e-10, cumulative = -4.40266e-07
ExecutionTime = 0.07 s  ClockTime = 0 s

Time = 0.105

Courant Number mean: 0.803827 max: 1.57294
smoothSolver:  Solving for Ux, Initial residual = 0.000245381, Final residual = 7.35412e-06, No Iterations 7
smoothSolver:  Solving for Uy, Initial residual = 0.00354056, Final residual = 8.56072e-06, No Iterations 12
DICPCG:  Solving for p, Initial residual = 0.00102776, Final residual = 4.47458e-05, No Iterations 42
time step continuity errors : sum local = 6.56237e-07, global = 1.75165e-08, cumulative = -4.22749e-07
DICPCG:  Solving for p, Initial residual = 0.000842076, Final residual = 7.75503e-07, No Iterations 51
time step continuity errors : sum local = 1.13194e-08, global = 1.55292e-10, cumulative = -4.22594e-07
ExecutionTime = 0.07 s  ClockTime = 0 s

Time = 0.11

Courant Number mean: 0.803695 max: 1.57207
smoothSolver:  Solving for Ux, Initial residual = 0.000206285, Final residual = 6.16747e-06, No Iterations 7
smoothSolver:  Solving for Uy, Initial residual = 0.00297051, Final residual = 7.19607e-06, No Iterations 12
DICPCG:  Solving for p, Initial residual = 0.000861196, Final residual = 3.73959e-05, No Iterations 42
time step continuity errors : sum local = 5.47894e-07, global = 1.53704e-08, cumulative = -4.07223e-07
DICPCG:  Solving for p, Initial residual = 0.000703939, Final residual = 8.93192e-07, No Iterations 50
time step continuity errors : sum local = 1.30355e-08, global = 1.64901e-10, cumulative = -4.07058e-07
ExecutionTime = 0.07 s  ClockTime = 0 s

Time = 0.115

Courant Number mean: 0.803579 max: 1.57127
smoothSolver:  Solving for Ux, Initial residual = 0.000173885, Final residual = 8.50114e-06, No Iterations 6
smoothSolver:  Solving for Uy, Initial residual = 0.00248037, Final residual = 9.92926e-06, No Iterations 11
DICPCG:  Solving for p, Initial residual = 0.000720013, Final residual = 2.78111e-05, No Iterations 42
time step continuity errors : sum local = 4.0713e-07, global = 1.21111e-08, cumulative = -3.94947e-07
DICPCG:  Solving for p, Initial residual = 0.000587778, Final residual = 6.71349e-07, No Iterations 50
time step continuity errors : sum local = 9.7989e-09, global = 1.33572e-10, cumulative = -3.94814e-07
ExecutionTime = 0.08 s  ClockTime = 0 s

Time = 0.12

Courant Number mean: 0.803476 max: 1.57053
smoothSolver:  Solving for Ux, Initial residual = 0.000147334, Final residual = 7.15798e-06, No Iterations 6
smoothSolver:  Solving for Uy, Initial residual = 0.00206243, Final residual = 8.29012e-06, No Iterations 11
DICPCG:  Solving for p, Initial residual = 0.000594466, Final residual = 2.35705e-05, No Iterations 42
time step continuity errors : sum local = 3.44823e-07, global = 1.06566e-08, cumulative = -3.84157e-07
DICPCG:  Solving for p, Initial residual = 0.000485035, Final residual = 9.52713e-07, No Iterations 49
time step continuity errors : sum local = 1.39032e-08, global = 1.17706e-10, cumulative = -3.8404e-07
ExecutionTime = 0.08 s  ClockTime = 0 s

Time = 0.125

Courant Number mean: 0.803386 max: 1.56987
smoothSolver:  Solving for Ux, Initial residual = 0.000124589, Final residual = 9.91406e-06, No Iterations 5
smoothSolver:  Solving for Uy, Initial residual = 0.00171199, Final residual = 6.92471e-06, No Iterations 11
DICPCG:  Solving for p, Initial residual = 0.000505944, Final residual = 2.16411e-05, No Iterations 41
time step continuity errors : sum local = 3.16419e-07, global = 1.17618e-08, cumulative = -3.72278e-07
DICPCG:  Solving for p, Initial residual = 0.000415743, Final residual = 9.6053e-07, No Iterations 48
time step continuity errors : sum local = 1.4019e-08, global = 2.46505e-10, cumulative = -3.72031e-07
ExecutionTime = 0.08 s  ClockTime = 0 s

Time = 0.13

Courant Number mean: 0.803308 max: 1.56929
smoothSolver:  Solving for Ux, Initial residual = 0.000106175, Final residual = 8.37761e-06, No Iterations 5
smoothSolver:  Solving for Uy, Initial residual = 0.00141258, Final residual = 9.45369e-06, No Iterations 10
DICPCG:  Solving for p, Initial residual = 0.000415883, Final residual = 1.87857e-05, No Iterations 41
time step continuity errors : sum local = 2.74548e-07, global = 1.02454e-08, cumulative = -3.61786e-07
DICPCG:  Solving for p, Initial residual = 0.000343192, Final residual = 8.28757e-07, No Iterations 48
time step continuity errors : sum local = 1.20938e-08, global = 2.14119e-10, cumulative = -3.61572e-07
ExecutionTime = 0.08 s  ClockTime = 0 s

Time = 0.135

Courant Number mean: 0.803238 max: 1.56878
smoothSolver:  Solving for Ux, Initial residual = 8.9893e-05, Final residual = 7.04302e-06, No Iterations 5
smoothSolver:  Solving for Uy, Initial residual = 0.00116783, Final residual = 7.89602e-06, No Iterations 10
DICPCG:  Solving for p, Initial residual = 0.000342665, Final residual = 1.48303e-05, No Iterations 41
time step continuity errors : sum local = 2.16661e-07, global = 8.26796e-09, cumulative = -3.53304e-07
DICPCG:  Solving for p, Initial residual = 0.000283212, Final residual = 6.72737e-07, No Iterations 48
time step continuity errors : sum local = 9.81611e-09, global = 1.91478e-10, cumulative = -3.53112e-07
ExecutionTime = 0.09 s  ClockTime = 0 s

Time = 0.14

Courant Number mean: 0.803178 max: 1.56833
smoothSolver:  Solving for Ux, Initial residual = 7.62177e-05, Final residual = 9.84807e-06, No Iterations 4
smoothSolver:  Solving for Uy, Initial residual = 0.000960085, Final residual = 6.57315e-06, No Iterations 10
DICPCG:  Solving for p, Initial residual = 0.000300575, Final residual = 1.01483e-05, No Iterations 41
time step continuity errors : sum local = 1.48213e-07, global = 7.01734e-09, cumulative = -3.46095e-07
DICPCG:  Solving for p, Initial residual = 0.000252511, Final residual = 8.8088e-07, No Iterations 47
time step continuity errors : sum local = 1.28543e-08, global = 1.12204e-10, cumulative = -3.45983e-07
ExecutionTime = 0.09 s  ClockTime = 0 s

Time = 0.145

Courant Number mean: 0.803127 max: 1.56796
smoothSolver:  Solving for Ux, Initial residual = 6.55955e-05, Final residual = 8.44894e-06, No Iterations 4
smoothSolver:  Solving for Uy, Initial residual = 0.00078373, Final residual = 8.88231e-06, No Iterations 9
DICPCG:  Solving for p, Initial residual = 0.000239336, Final residual = 9.23016e-06, No Iterations 41
time step continuity errors : sum local = 1.34773e-07, global = 6.56474e-09, cumulative = -3.39418e-07
DICPCG:  Solving for p, Initial residual = 0.000201157, Final residual = 7.32756e-07, No Iterations 47
time step continuity errors : sum local = 1.06916e-08, global = 2.14114e-10, cumulative = -3.39204e-07
ExecutionTime = 0.09 s  ClockTime = 0 s

Time = 0.15

Courant Number mean: 0.803082 max: 1.56764
smoothSolver:  Solving for Ux, Initial residual = 5.52458e-05, Final residual = 7.06382e-06, No Iterations 4
smoothSolver:  Solving for Uy, Initial residual = 0.00064923, Final residual = 7.48804e-06, No Iterations 9
DICPCG:  Solving for p, Initial residual = 0.000198652, Final residual = 6.97854e-06, No Iterations 41
time step continuity errors : sum local = 1.01876e-07, global = 4.12036e-09, cumulative = -3.35084e-07
DICPCG:  Solving for p, Initial residual = 0.000167558, Final residual = 9.88485e-07, No Iterations 46
time step continuity errors : sum local = 1.44219e-08, global = 1.41321e-10, cumulative = -3.34942e-07
ExecutionTime = 0.09 s  ClockTime = 0 s

Time = 0.155

Courant Number mean: 0.803042 max: 1.56736
smoothSolver:  Solving for Ux, Initial residual = 4.72331e-05, Final residual = 6.01269e-06, No Iterations 4
smoothSolver:  Solving for Uy, Initial residual = 0.000531688, Final residual = 6.22009e-06, No Iterations 9
DICPCG:  Solving for p, Initial residual = 0.00016325, Final residual = 6.86844e-06, No Iterations 40
time step continuity errors : sum local = 1.00252e-07, global = 4.29703e-09, cumulative = -3.30645e-07
DICPCG:  Solving for p, Initial residual = 0.000138138, Final residual = 9.59821e-07, No Iterations 46
time step continuity errors : sum local = 1.40028e-08, global = 1.10557e-10, cumulative = -3.30535e-07
ExecutionTime = 0.09 s  ClockTime = 0 s

Time = 0.16

Courant Number mean: 0.803008 max: 1.56713
smoothSolver:  Solving for Ux, Initial residual = 4.00173e-05, Final residual = 8.46995e-06, No Iterations 3
smoothSolver:  Solving for Uy, Initial residual = 0.000438307, Final residual = 8.50533e-06, No Iterations 8
DICPCG:  Solving for p, Initial residual = 0.000151958, Final residual = 7.44324e-06, No Iterations 26
time step continuity errors : sum local = 1.08626e-07, global = 2.14318e-08, cumulative = -3.09103e-07
DICPCG:  Solving for p, Initial residual = 0.000134209, Final residual = 9.27061e-07, No Iterations 46
time step continuity errors : sum local = 1.35283e-08, global = 3.26868e-10, cumulative = -3.08776e-07
ExecutionTime = 0.1 s  ClockTime = 0 s

Time = 0.165

Courant Number mean: 0.80298 max: 1.56694
smoothSolver:  Solving for Ux, Initial residual = 3.41619e-05, Final residual = 7.22222e-06, No Iterations 3
smoothSolver:  Solving for Uy, Initial residual = 0.000364522, Final residual = 7.12397e-06, No Iterations 8
DICPCG:  Solving for p, Initial residual = 0.000130012, Final residual = 4.48738e-06, No Iterations 41
time step continuity errors : sum local = 6.54713e-08, global = 1.7322e-09, cumulative = -3.07044e-07
DICPCG:  Solving for p, Initial residual = 0.00011402, Final residual = 7.27199e-07, No Iterations 46
time step continuity errors : sum local = 1.06179e-08, global = 9.91557e-11, cumulative = -3.06945e-07
ExecutionTime = 0.1 s  ClockTime = 0 s

Time = 0.17

Courant Number mean: 0.802956 max: 1.56678
smoothSolver:  Solving for Ux, Initial residual = 2.95066e-05, Final residual = 6.22719e-06, No Iterations 3
smoothSolver:  Solving for Uy, Initial residual = 0.00029703, Final residual = 9.60179e-06, No Iterations 7
DICPCG:  Solving for p, Initial residual = 0.000101353, Final residual = 3.31987e-06, No Iterations 41
time step continuity errors : sum local = 4.84418e-08, global = 1.10872e-09, cumulative = -3.05836e-07
DICPCG:  Solving for p, Initial residual = 8.96351e-05, Final residual = 5.45233e-07, No Iterations 46
time step continuity errors : sum local = 7.95343e-09, global = 9.31448e-11, cumulative = -3.05743e-07
ExecutionTime = 0.1 s  ClockTime = 0 s

Time = 0.175

Courant Number mean: 0.802935 max: 1.56665
smoothSolver:  Solving for Ux, Initial residual = 2.50981e-05, Final residual = 8.85413e-06, No Iterations 2
smoothSolver:  Solving for Uy, Initial residual = 0.000248337, Final residual = 8.07569e-06, No Iterations 7
DICPCG:  Solving for p, Initial residual = 0.000113341, Final residual = 5.52854e-06, No Iterations 23
time step continuity errors : sum local = 8.0661e-08, global = 1.08458e-08, cumulative = -2.94897e-07
DICPCG:  Solving for p, Initial residual = 0.000105262, Final residual = 7.44195e-07, No Iterations 46
time step continuity errors : sum local = 1.08575e-08, global = -9.8573e-12, cumulative = -2.94907e-07
ExecutionTime = 0.1 s  ClockTime = 0 s

Time = 0.18

Courant Number mean: 0.802918 max: 1.56655
smoothSolver:  Solving for Ux, Initial residual = 2.19054e-05, Final residual = 7.7036e-06, No Iterations 2
smoothSolver:  Solving for Uy, Initial residual = 0.000208622, Final residual = 6.74286e-06, No Iterations 7
DICPCG:  Solving for p, Initial residual = 9.48508e-05, Final residual = 4.35886e-06, No Iterations 26
time step continuity errors : sum local = 6.35897e-08, global = -1.15902e-08, cumulative = -3.06497e-07
DICPCG:  Solving for p, Initial residual = 8.6653e-05, Final residual = 6.55823e-07, No Iterations 46
time step continuity errors : sum local = 9.56791e-09, global = -3.12401e-11, cumulative = -3.06528e-07
ExecutionTime = 0.1 s  ClockTime = 0 s

Time = 0.185

Courant Number mean: 0.802903 max: 1.56646
smoothSolver:  Solving for Ux, Initial residual = 1.91624e-05, Final residual = 6.74174e-06, No Iterations 2
smoothSolver:  Solving for Uy, Initial residual = 0.000177245, Final residual = 9.3842e-06, No Iterations 6
DICPCG:  Solving for p, Initial residual = 7.53959e-05, Final residual = 3.11047e-06, No Iterations 41
time step continuity errors : sum local = 4.53816e-08, global = -1.70695e-11, cumulative = -3.06545e-07
DICPCG:  Solving for p, Initial residual = 7.00817e-05, Final residual = 9.16739e-07, No Iterations 45
time step continuity errors : sum local = 1.33677e-08, global = 8.47408e-11, cumulative = -3.06461e-07
ExecutionTime = 0.11 s  ClockTime = 0 s

Time = 0.19

Courant Number mean: 0.80289 max: 1.56639
smoothSolver:  Solving for Ux, Initial residual = 1.64658e-05, Final residual = 9.75851e-06, No Iterations 1
smoothSolver:  Solving for Uy, Initial residual = 0.0001503, Final residual = 7.88217e-06, No Iterations 6
DICPCG:  Solving for p, Initial residual = 0.000102476, Final residual = 4.87024e-06, No Iterations 21
time step continuity errors : sum local = 7.10456e-08, global = -3.14838e-09, cumulative = -3.09609e-07
DICPCG:  Solving for p, Initial residual = 9.88378e-05, Final residual = 7.6842e-07, No Iterations 32
time step continuity errors : sum local = 1.12095e-08, global = -7.72083e-10, cumulative = -3.10381e-07
ExecutionTime = 0.11 s  ClockTime = 0 s

Time = 0.195

Courant Number mean: 0.80288 max: 1.56633
smoothSolver:  Solving for Ux, Initial residual = 1.4975e-05, Final residual = 8.85045e-06, No Iterations 1
smoothSolver:  Solving for Uy, Initial residual = 0.000127608, Final residual = 6.64881e-06, No Iterations 6
DICPCG:  Solving for p, Initial residual = 8.59374e-05, Final residual = 4.1381e-06, No Iterations 25
time step continuity errors : sum local = 6.0366e-08, global = 1.28753e-08, cumulative = -2.97506e-07
DICPCG:  Solving for p, Initial residual = 8.25233e-05, Final residual = 7.24257e-07, No Iterations 46
time step continuity errors : sum local = 1.05651e-08, global = 5.47435e-11, cumulative = -2.97451e-07
ExecutionTime = 0.11 s  ClockTime = 0 s

Time = 0.2

Courant Number mean: 0.802872 max: 1.56628
smoothSolver:  Solving for Ux, Initial residual = 1.31504e-05, Final residual = 7.71233e-06, No Iterations 1
smoothSolver:  Solving for Uy, Initial residual = 0.000111883, Final residual = 9.47837e-06, No Iterations 5
DICPCG:  Solving for p, Initial residual = 7.28737e-05, Final residual = 3.07456e-06, No Iterations 41
time step continuity errors : sum local = 4.48464e-08, global = -8.1864e-10, cumulative = -2.9827e-07
DICPCG:  Solving for p, Initial residual = 6.99169e-05, Final residual = 8.6273e-07, No Iterations 45
time step continuity errors : sum local = 1.2587e-08, global = 7.20636e-11, cumulative = -2.98198e-07
ExecutionTime = 0.11 s  ClockTime = 0 s

Time = 0.205

Courant Number mean: 0.802864 max: 1.56624
smoothSolver:  Solving for Ux, Initial residual = 1.17943e-05, Final residual = 6.94456e-06, No Iterations 1
smoothSolver:  Solving for Uy, Initial residual = 9.58512e-05, Final residual = 8.13385e-06, No Iterations 5
DICPCG:  Solving for p, Initial residual = 6.19003e-05, Final residual = 2.92096e-06, No Iterations 21
time step continuity errors : sum local = 4.26082e-08, global = 2.81671e-09, cumulative = -2.95381e-07
DICPCG:  Solving for p, Initial residual = 5.93828e-05, Final residual = 9.8572e-07, No Iterations 30
time step continuity errors : sum local = 1.43786e-08, global = 2.25107e-09, cumulative = -2.9313e-07
ExecutionTime = 0.11 s  ClockTime = 0 s

Time = 0.21

Courant Number mean: 0.802858 max: 1.56621
smoothSolver:  Solving for Ux, Initial residual = 1.05842e-05, Final residual = 6.24015e-06, No Iterations 1
smoothSolver:  Solving for Uy, Initial residual = 8.31999e-05, Final residual = 7.01541e-06, No Iterations 5
DICPCG:  Solving for p, Initial residual = 5.42993e-05, Final residual = 2.57221e-06, No Iterations 25
time step continuity errors : sum local = 3.75205e-08, global = 7.70826e-09, cumulative = -2.85421e-07
DICPCG:  Solving for p, Initial residual = 5.21301e-05, Final residual = 6.89102e-07, No Iterations 45
time step continuity errors : sum local = 1.00517e-08, global = 8.77747e-11, cumulative = -2.85334e-07
ExecutionTime = 0.12 s  ClockTime = 0 s

Time = 0.215

Courant Number mean: 0.802852 max: 1.56618
smoothSolver:  Solving for Ux, Initial residual = 9.359e-06, Final residual = 9.359e-06, No Iterations 0
smoothSolver:  Solving for Uy, Initial residual = 7.35706e-05, Final residual = 6.15481e-06, No Iterations 5
DICPCG:  Solving for p, Initial residual = 8.62911e-05, Final residual = 3.64526e-06, No Iterations 20
time step continuity errors : sum local = 5.31686e-08, global = -8.63785e-09, cumulative = -2.93972e-07
DICPCG:  Solving for p, Initial residual = 8.41188e-05, Final residual = 7.73615e-07, No Iterations 46
time step continuity errors : sum local = 1.12838e-08, global = -1.09321e-11, cumulative = -2.93983e-07
ExecutionTime = 0.12 s  ClockTime = 0 s

Time = 0.22

Courant Number mean: 0.802848 max: 1.56617
smoothSolver:  Solving for Ux, Initial residual = 9.17195e-06, Final residual = 9.17195e-06, No Iterations 0
smoothSolver:  Solving for Uy, Initial residual = 6.39509e-05, Final residual = 8.7825e-06, No Iterations 4
DICPCG:  Solving for p, Initial residual = 6.89242e-05, Final residual = 2.92173e-06, No Iterations 25
time step continuity errors : sum local = 4.26197e-08, global = 8.8593e-09, cumulative = -2.85123e-07
DICPCG:  Solving for p, Initial residual = 6.78846e-05, Final residual = 9.21508e-07, No Iterations 45
time step continuity errors : sum local = 1.3442e-08, global = 5.06982e-11, cumulative = -2.85073e-07
ExecutionTime = 0.12 s  ClockTime = 0 s

Time = 0.225

Courant Number mean: 0.802845 max: 1.56615
smoothSolver:  Solving for Ux, Initial residual = 8.41797e-06, Final residual = 8.41797e-06, No Iterations 0
smoothSolver:  Solving for Uy, Initial residual = 5.80257e-05, Final residual = 7.86021e-06, No Iterations 4
DICPCG:  Solving for p, Initial residual = 6.52242e-05, Final residual = 3.26064e-06, No Iterations 19
time step continuity errors : sum local = 4.75583e-08, global = -7.60512e-09, cumulative = -2.92678e-07
DICPCG:  Solving for p, Initial residual = 6.42516e-05, Final residual = 8.51325e-07, No Iterations 45
time step continuity errors : sum local = 1.24172e-08, global = -2.47009e-12, cumulative = -2.9268e-07
ExecutionTime = 0.12 s  ClockTime = 0 s

Time = 0.23

Courant Number mean: 0.802842 max: 1.56614
smoothSolver:  Solving for Ux, Initial residual = 8.10963e-06, Final residual = 8.10963e-06, No Iterations 0
smoothSolver:  Solving for Uy, Initial residual = 5.21015e-05, Final residual = 7.14138e-06, No Iterations 4
DICPCG:  Solving for p, Initial residual = 5.76978e-05, Final residual = 2.66094e-06, No Iterations 25
time step continuity errors : sum local = 3.88149e-08, global = 8.04568e-09, cumulative = -2.84634e-07
DICPCG:  Solving for p, Initial residual = 5.68835e-05, Final residual = 7.82181e-07, No Iterations 45
time step continuity errors : sum local = 1.14094e-08, global = 1.8268e-11, cumulative = -2.84616e-07
ExecutionTime = 0.12 s  ClockTime = 0 s

Time = 0.235

Courant Number mean: 0.802839 max: 1.56613
smoothSolver:  Solving for Ux, Initial residual = 7.45444e-06, Final residual = 7.45444e-06, No Iterations 0
smoothSolver:  Solving for Uy, Initial residual = 4.77146e-05, Final residual = 6.41925e-06, No Iterations 4
DICPCG:  Solving for p, Initial residual = 5.45203e-05, Final residual = 2.6614e-06, No Iterations 19
time step continuity errors : sum local = 3.88178e-08, global = -6.15529e-09, cumulative = -2.90771e-07
DICPCG:  Solving for p, Initial residual = 5.37197e-05, Final residual = 7.30559e-07, No Iterations 45
time step continuity errors : sum local = 1.06557e-08, global = -1.23032e-11, cumulative = -2.90784e-07
ExecutionTime = 0.13 s  ClockTime = 0 s

Time = 0.24

Courant Number mean: 0.802837 max: 1.56612
smoothSolver:  Solving for Ux, Initial residual = 7.17395e-06, Final residual = 7.17395e-06, No Iterations 0
smoothSolver:  Solving for Uy, Initial residual = 4.32634e-05, Final residual = 9.63149e-06, No Iterations 3
DICPCG:  Solving for p, Initial residual = 4.37978e-05, Final residual = 1.74422e-06, No Iterations 26
time step continuity errors : sum local = 2.54425e-08, global = 6.22047e-09, cumulative = -2.84563e-07
DICPCG:  Solving for p, Initial residual = 4.34e-05, Final residual = 8.61735e-07, No Iterations 44
time step continuity errors : sum local = 1.25697e-08, global = 4.51074e-11, cumulative = -2.84518e-07
ExecutionTime = 0.13 s  ClockTime = 0 s

Time = 0.245

Courant Number mean: 0.802834 max: 1.56611
smoothSolver:  Solving for Ux, Initial residual = 6.6006e-06, Final residual = 6.6006e-06, No Iterations 0
smoothSolver:  Solving for Uy, Initial residual = 3.99618e-05, Final residual = 8.83743e-06, No Iterations 3
DICPCG:  Solving for p, Initial residual = 4.17382e-05, Final residual = 1.73554e-06, No Iterations 20
time step continuity errors : sum local = 2.53137e-08, global = -4.55047e-09, cumulative = -2.89069e-07
DICPCG:  Solving for p, Initial residual = 4.12904e-05, Final residual = 7.92733e-07, No Iterations 44
time step continuity errors : sum local = 1.15625e-08, global = -3.8984e-12, cumulative = -2.89073e-07
ExecutionTime = 0.13 s  ClockTime = 0 s

Time = 0.25

Courant Number mean: 0.802833 max: 1.5661
smoothSolver:  Solving for Ux, Initial residual = 6.33015e-06, Final residual = 6.33015e-06, No Iterations 0
smoothSolver:  Solving for Uy, Initial residual = 3.70411e-05, Final residual = 8.21376e-06, No Iterations 3
DICPCG:  Solving for p, Initial residual = 3.75434e-05, Final residual = 1.77563e-06, No Iterations 25
time step continuity errors : sum local = 2.59002e-08, global = 5.50977e-09, cumulative = -2.83563e-07
DICPCG:  Solving for p, Initial residual = 3.71179e-05, Final residual = 9.57625e-07, No Iterations 43
time step continuity errors : sum local = 1.39682e-08, global = 9.15692e-11, cumulative = -2.83471e-07
ExecutionTime = 0.13 s  ClockTime = 0 s

Time = 0.255

Courant Number mean: 0.802831 max: 1.56609
smoothSolver:  Solving for Ux, Initial residual = 5.87808e-06, Final residual = 5.87808e-06, No Iterations 0
smoothSolver:  Solving for Uy, Initial residual = 3.39226e-05, Final residual = 7.46851e-06, No Iterations 3
DICPCG:  Solving for p, Initial residual = 3.53776e-05, Final residual = 1.66935e-06, No Iterations 19
time step continuity errors : sum local = 2.43484e-08, global = -3.20172e-09, cumulative = -2.86673e-07
DICPCG:  Solving for p, Initial residual = 3.49117e-05, Final residual = 9.05695e-07, No Iterations 43
time step continuity errors : sum local = 1.32101e-08, global = -6.64729e-11, cumulative = -2.86739e-07
ExecutionTime = 0.13 s  ClockTime = 0 s

Time = 0.26

Courant Number mean: 0.802829 max: 1.56609
smoothSolver:  Solving for Ux, Initial residual = 5.66239e-06, Final residual = 5.66239e-06, No Iterations 0
smoothSolver:  Solving for Uy, Initial residual = 3.11882e-05, Final residual = 6.90846e-06, No Iterations 3
DICPCG:  Solving for p, Initial residual = 3.19469e-05, Final residual = 1.46206e-06, No Iterations 25
time step continuity errors : sum local = 2.13261e-08, global = 4.34568e-09, cumulative = -2.82394e-07
DICPCG:  Solving for p, Initial residual = 3.16037e-05, Final residual = 8.00771e-07, No Iterations 43
time step continuity errors : sum local = 1.16802e-08, global = 5.83538e-11, cumulative = -2.82335e-07
ExecutionTime = 0.14 s  ClockTime = 0 s

Time = 0.265

Courant Number mean: 0.802827 max: 1.56608
smoothSolver:  Solving for Ux, Initial residual = 5.26848e-06, Final residual = 5.26848e-06, No Iterations 0
smoothSolver:  Solving for Uy, Initial residual = 2.89137e-05, Final residual = 6.34657e-06, No Iterations 3
DICPCG:  Solving for p, Initial residual = 3.01825e-05, Final residual = 1.36539e-06, No Iterations 19
time step continuity errors : sum local = 1.9915e-08, global = -2.02649e-09, cumulative = -2.84362e-07
DICPCG:  Solving for p, Initial residual = 2.98229e-05, Final residual = 7.48197e-07, No Iterations 43
time step continuity errors : sum local = 1.09129e-08, global = -8.25003e-11, cumulative = -2.84444e-07
ExecutionTime = 0.14 s  ClockTime = 0 s

Time = 0.27

Courant Number mean: 0.802826 max: 1.56608
smoothSolver:  Solving for Ux, Initial residual = 5.07685e-06, Final residual = 5.07685e-06, No Iterations 0
smoothSolver:  Solving for Uy, Initial residual = 2.65582e-05, Final residual = 9.61299e-06, No Iterations 2
DICPCG:  Solving for p, Initial residual = 2.24649e-05, Final residual = 1.03906e-06, No Iterations 25
time step continuity errors : sum local = 1.51559e-08, global = 2.99123e-09, cumulative = -2.81453e-07
DICPCG:  Solving for p, Initial residual = 2.23492e-05, Final residual = 8.68083e-07, No Iterations 26
time step continuity errors : sum local = 1.26619e-08, global = 2.32755e-09, cumulative = -2.79126e-07
ExecutionTime = 0.14 s  ClockTime = 0 s

Time = 0.275

Courant Number mean: 0.802825 max: 1.56607
smoothSolver:  Solving for Ux, Initial residual = 4.73784e-06, Final residual = 4.73784e-06, No Iterations 0
smoothSolver:  Solving for Uy, Initial residual = 2.54638e-05, Final residual = 9.22267e-06, No Iterations 2
DICPCG:  Solving for p, Initial residual = 2.17035e-05, Final residual = 9.34587e-07, No Iterations 26
time step continuity errors : sum local = 1.36319e-08, global = 2.93289e-09, cumulative = -2.76193e-07
DICPCG:  Solving for p, Initial residual = 2.14665e-05, Final residual = 8.02916e-07, No Iterations 25
time step continuity errors : sum local = 1.17112e-08, global = 1.40289e-09, cumulative = -2.7479e-07
ExecutionTime = 0.14 s  ClockTime = 0 s

Time = 0.28

Courant Number mean: 0.802824 max: 1.56607
smoothSolver:  Solving for Ux, Initial residual = 4.49197e-06, Final residual = 4.49197e-06, No Iterations 0
smoothSolver:  Solving for Uy, Initial residual = 2.3429e-05, Final residual = 8.48197e-06, No Iterations 2
DICPCG:  Solving for p, Initial residual = 1.99977e-05, Final residual = 9.23696e-07, No Iterations 20
time step continuity errors : sum local = 1.34729e-08, global = 1.92745e-09, cumulative = -2.72862e-07
DICPCG:  Solving for p, Initial residual = 1.98214e-05, Final residual = 9.19345e-07, No Iterations 18
time step continuity errors : sum local = 1.34094e-08, global = -1.36397e-10, cumulative = -2.72999e-07
ExecutionTime = 0.14 s  ClockTime = 0 s

Time = 0.285

Courant Number mean: 0.802823 max: 1.56606
smoothSolver:  Solving for Ux, Initial residual = 4.34478e-06, Final residual = 4.34478e-06, No Iterations 0
smoothSolver:  Solving for Uy, Initial residual = 2.13035e-05, Final residual = 7.6881e-06, No Iterations 2
DICPCG:  Solving for p, Initial residual = 1.86051e-05, Final residual = 8.73199e-07, No Iterations 17
time step continuity errors : sum local = 1.27363e-08, global = -3.47929e-10, cumulative = -2.73347e-07
DICPCG:  Solving for p, Initial residual = 1.84237e-05, Final residual = 6.8593e-07, No Iterations 18
time step continuity errors : sum local = 1.00048e-08, global = -7.84881e-10, cumulative = -2.74132e-07
ExecutionTime = 0.14 s  ClockTime = 0 s

Time = 0.29

Courant Number mean: 0.802822 max: 1.56606
smoothSolver:  Solving for Ux, Initial residual = 4.11385e-06, Final residual = 4.11385e-06, No Iterations 0
smoothSolver:  Solving for Uy, Initial residual = 2.017e-05, Final residual = 7.27093e-06, No Iterations 2
DICPCG:  Solving for p, Initial residual = 1.767e-05, Final residual = 9.85293e-07, No Iterations 12
time step continuity errors : sum local = 1.43713e-08, global = -1.61946e-09, cumulative = -2.75751e-07
DICPCG:  Solving for p, Initial residual = 1.74701e-05, Final residual = 7.6262e-07, No Iterations 11
time step continuity errors : sum local = 1.11234e-08, global = -1.1698e-09, cumulative = -2.76921e-07
ExecutionTime = 0.14 s  ClockTime = 0 s

Time = 0.295

Courant Number mean: 0.802821 max: 1.56606
smoothSolver:  Solving for Ux, Initial residual = 3.89877e-06, Final residual = 3.89877e-06, No Iterations 0
smoothSolver:  Solving for Uy, Initial residual = 1.89992e-05, Final residual = 6.82724e-06, No Iterations 2
DICPCG:  Solving for p, Initial residual = 1.67141e-05, Final residual = 9.4431e-07, No Iterations 11
time step continuity errors : sum local = 1.37735e-08, global = -1.66608e-09, cumulative = -2.78587e-07
DICPCG:  Solving for p, Initial residual = 1.64459e-05, Final residual = 8.57311e-07, No Iterations 11
time step continuity errors : sum local = 1.25046e-08, global = -1.85446e-09, cumulative = -2.80441e-07
ExecutionTime = 0.15 s  ClockTime = 0 s

Time = 0.3

Courant Number mean: 0.80282 max: 1.56606
smoothSolver:  Solving for Ux, Initial residual = 3.74102e-06, Final residual = 3.74102e-06, No Iterations 0
smoothSolver:  Solving for Uy, Initial residual = 1.79227e-05, Final residual = 6.51678e-06, No Iterations 2
DICPCG:  Solving for p, Initial residual = 1.52126e-05, Final residual = 8.11605e-07, No Iterations 18
time step continuity errors : sum local = 1.18379e-08, global = -4.23267e-10, cumulative = -2.80865e-07
DICPCG:  Solving for p, Initial residual = 1.4994e-05, Final residual = 8.7295e-07, No Iterations 17
time step continuity errors : sum local = 1.27327e-08, global = -6.11712e-10, cumulative = -2.81476e-07
ExecutionTime = 0.15 s  ClockTime = 0 s

Time = 0.305

Courant Number mean: 0.802819 max: 1.56605
smoothSolver:  Solving for Ux, Initial residual = 3.62404e-06, Final residual = 3.62404e-06, No Iterations 0
smoothSolver:  Solving for Uy, Initial residual = 1.64242e-05, Final residual = 9.74146e-06, No Iterations 1
DICPCG:  Solving for p, Initial residual = 9.12668e-06, Final residual = 9.49531e-07, No Iterations 9
time step continuity errors : sum local = 1.38498e-08, global = -7.48351e-10, cumulative = -2.82225e-07
DICPCG:  Solving for p, Initial residual = 9.09838e-06, Final residual = 7.91889e-07, No Iterations 9
time step continuity errors : sum local = 1.15504e-08, global = 1.82626e-10, cumulative = -2.82042e-07
ExecutionTime = 0.15 s  ClockTime = 0 s

Time = 0.31

Courant Number mean: 0.802818 max: 1.56605
smoothSolver:  Solving for Ux, Initial residual = 3.43351e-06, Final residual = 3.43351e-06, No Iterations 0
smoothSolver:  Solving for Uy, Initial residual = 1.5885e-05, Final residual = 9.46923e-06, No Iterations 1
DICPCG:  Solving for p, Initial residual = 9.06516e-06, Final residual = 9.90586e-07, No Iterations 8
time step continuity errors : sum local = 1.44486e-08, global = 9.84737e-10, cumulative = -2.81057e-07
DICPCG:  Solving for p, Initial residual = 8.63109e-06, Final residual = 7.51593e-07, No Iterations 9
time step continuity errors : sum local = 1.09626e-08, global = 1.66022e-09, cumulative = -2.79397e-07
ExecutionTime = 0.15 s  ClockTime = 0 s

Time = 0.315

Courant Number mean: 0.802818 max: 1.56605
smoothSolver:  Solving for Ux, Initial residual = 3.29893e-06, Final residual = 3.29893e-06, No Iterations 0
smoothSolver:  Solving for Uy, Initial residual = 1.44903e-05, Final residual = 8.70845e-06, No Iterations 1
DICPCG:  Solving for p, Initial residual = 7.79833e-06, Final residual = 9.84001e-07, No Iterations 8
time step continuity errors : sum local = 1.43525e-08, global = 2.06554e-09, cumulative = -2.77332e-07
DICPCG:  Solving for p, Initial residual = 7.71132e-06, Final residual = 8.49194e-07, No Iterations 8
time step continuity errors : sum local = 1.23862e-08, global = 2.67874e-09, cumulative = -2.74653e-07
ExecutionTime = 0.15 s  ClockTime = 0 s

Time = 0.32

Courant Number mean: 0.802817 max: 1.56605
smoothSolver:  Solving for Ux, Initial residual = 3.17373e-06, Final residual = 3.17373e-06, No Iterations 0
smoothSolver:  Solving for Uy, Initial residual = 1.34872e-05, Final residual = 8.1029e-06, No Iterations 1
DICPCG:  Solving for p, Initial residual = 7.4884e-06, Final residual = 8.44555e-07, No Iterations 8
time step continuity errors : sum local = 1.23186e-08, global = 3.17059e-09, cumulative = -2.71482e-07
DICPCG:  Solving for p, Initial residual = 7.23921e-06, Final residual = 8.50221e-07, No Iterations 8
time step continuity errors : sum local = 1.24012e-08, global = 3.51435e-09, cumulative = -2.67968e-07
ExecutionTime = 0.16 s  ClockTime = 0 s

Time = 0.325

Courant Number mean: 0.802817 max: 1.56605
smoothSolver:  Solving for Ux, Initial residual = 3.04732e-06, Final residual = 3.04732e-06, No Iterations 0
smoothSolver:  Solving for Uy, Initial residual = 1.27845e-05, Final residual = 7.66225e-06, No Iterations 1
DICPCG:  Solving for p, Initial residual = 7.00086e-06, Final residual = 9.98263e-07, No Iterations 7
time step continuity errors : sum local = 1.45605e-08, global = 3.62162e-09, cumulative = -2.64346e-07
DICPCG:  Solving for p, Initial residual = 6.81366e-06, Final residual = 8.99833e-07, No Iterations 7
time step continuity errors : sum local = 1.31248e-08, global = 3.72694e-09, cumulative = -2.60619e-07
ExecutionTime = 0.16 s  ClockTime = 0 s

Time = 0.33

Courant Number mean: 0.802816 max: 1.56604
smoothSolver:  Solving for Ux, Initial residual = 2.94265e-06, Final residual = 2.94265e-06, No Iterations 0
smoothSolver:  Solving for Uy, Initial residual = 1.17476e-05, Final residual = 7.04783e-06, No Iterations 1
DICPCG:  Solving for p, Initial residual = 6.43741e-06, Final residual = 7.35374e-07, No Iterations 7
time step continuity errors : sum local = 1.0726e-08, global = 3.75532e-09, cumulative = -2.56864e-07
DICPCG:  Solving for p, Initial residual = 6.142e-06, Final residual = 7.44115e-07, No Iterations 7
time step continuity errors : sum local = 1.08535e-08, global = 3.75012e-09, cumulative = -2.53114e-07
ExecutionTime = 0.16 s  ClockTime = 0 s

Time = 0.335

Courant Number mean: 0.802816 max: 1.56604
smoothSolver:  Solving for Ux, Initial residual = 2.82357e-06, Final residual = 2.82357e-06, No Iterations 0
smoothSolver:  Solving for Uy, Initial residual = 1.12322e-05, Final residual = 6.7378e-06, No Iterations 1
DICPCG:  Solving for p, Initial residual = 5.89247e-06, Final residual = 8.14677e-07, No Iterations 7
time step continuity errors : sum local = 1.18827e-08, global = 3.73178e-09, cumulative = -2.49382e-07
DICPCG:  Solving for p, Initial residual = 5.79997e-06, Final residual = 7.74503e-07, No Iterations 7
time step continuity errors : sum local = 1.12967e-08, global = 3.64126e-09, cumulative = -2.45741e-07
ExecutionTime = 0.16 s  ClockTime = 0 s

Time = 0.34

Courant Number mean: 0.802815 max: 1.56604
smoothSolver:  Solving for Ux, Initial residual = 2.71554e-06, Final residual = 2.71554e-06, No Iterations 0
smoothSolver:  Solving for Uy, Initial residual = 1.06207e-05, Final residual = 6.38082e-06, No Iterations 1
DICPCG:  Solving for p, Initial residual = 5.5956e-06, Final residual = 9.91522e-07, No Iterations 6
time step continuity errors : sum local = 1.44621e-08, global = 3.51107e-09, cumulative = -2.4223e-07
DICPCG:  Solving for p, Initial residual = 5.46547e-06, Final residual = 7.19675e-07, No Iterations 7
time step continuity errors : sum local = 1.0497e-08, global = 3.38671e-09, cumulative = -2.38843e-07
ExecutionTime = 0.16 s  ClockTime = 0 s

Time = 0.345

Courant Number mean: 0.802815 max: 1.56604
smoothSolver:  Solving for Ux, Initial residual = 2.61502e-06, Final residual = 2.61502e-06, No Iterations 0
smoothSolver:  Solving for Uy, Initial residual = 9.91992e-06, Final residual = 9.91992e-06, No Iterations 0
DICPCG:  Solving for p, Initial residual = 1.30297e-06, Final residual = 9.17966e-07, No Iterations 2
time step continuity errors : sum local = 1.33892e-08, global = 3.27184e-09, cumulative = -2.35571e-07
DICPCG:  Solving for p, Initial residual = 1.48235e-06, Final residual = 9.82814e-07, No Iterations 1
time step continuity errors : sum local = 1.43351e-08, global = 3.22827e-09, cumulative = -2.32343e-07
ExecutionTime = 0.16 s  ClockTime = 0 s

Time = 0.35

Courant Number mean: 0.802815 max: 1.56604
smoothSolver:  Solving for Ux, Initial residual = 2.48677e-06, Final residual = 2.48677e-06, No Iterations 0
smoothSolver:  Solving for Uy, Initial residual = 1.02647e-05, Final residual = 6.15466e-06, No Iterations 1
DICPCG:  Solving for p, Initial residual = 5.864e-06, Final residual = 8.17415e-07, No Iterations 7
time step continuity errors : sum local = 1.19226e-08, global = 2.95487e-09, cumulative = -2.29388e-07
DICPCG:  Solving for p, Initial residual = 5.49998e-06, Final residual = 9.80311e-07, No Iterations 6
time step continuity errors : sum local = 1.42985e-08, global = 2.62173e-09, cumulative = -2.26766e-07
ExecutionTime = 0.16 s  ClockTime = 0 s

Time = 0.355

Courant Number mean: 0.802814 max: 1.56604
smoothSolver:  Solving for Ux, Initial residual = 2.42165e-06, Final residual = 2.42165e-06, No Iterations 0
smoothSolver:  Solving for Uy, Initial residual = 9.25767e-06, Final residual = 9.25767e-06, No Iterations 0
DICPCG:  Solving for p, Initial residual = 1.72455e-06, Final residual = 9.68939e-07, No Iterations 3
time step continuity errors : sum local = 1.41327e-08, global = 2.44396e-09, cumulative = -2.24322e-07
DICPCG:  Solving for p, Initial residual = 1.47874e-06, Final residual = 6.48928e-07, No Iterations 2
time step continuity errors : sum local = 9.46509e-09, global = 2.30428e-09, cumulative = -2.22018e-07
ExecutionTime = 0.16 s  ClockTime = 0 s

Time = 0.36

Courant Number mean: 0.802814 max: 1.56604
smoothSolver:  Solving for Ux, Initial residual = 2.29798e-06, Final residual = 2.29798e-06, No Iterations 0
smoothSolver:  Solving for Uy, Initial residual = 9.85875e-06, Final residual = 9.85875e-06, No Iterations 0
DICPCG:  Solving for p, Initial residual = 1.16592e-06, Final residual = 6.81585e-07, No Iterations 1
time step continuity errors : sum local = 9.94142e-09, global = 2.08847e-09, cumulative = -2.1993e-07
DICPCG:  Solving for p, Initial residual = 8.77651e-07, Final residual = 8.77651e-07, No Iterations 0
time step continuity errors : sum local = 1.28012e-08, global = 1.91945e-09, cumulative = -2.1801e-07
ExecutionTime = 0.16 s  ClockTime = 0 s

Time = 0.365

Courant Number mean: 0.802814 max: 1.56603
smoothSolver:  Solving for Ux, Initial residual = 2.21271e-06, Final residual = 2.21271e-06, No Iterations 0
smoothSolver:  Solving for Uy, Initial residual = 9.65398e-06, Final residual = 9.65398e-06, No Iterations 0
DICPCG:  Solving for p, Initial residual = 1.18992e-06, Final residual = 7.24244e-07, No Iterations 1
time step continuity errors : sum local = 1.05636e-08, global = 1.74252e-09, cumulative = -2.16268e-07
DICPCG:  Solving for p, Initial residual = 9.07667e-07, Final residual = 9.07667e-07, No Iterations 0
time step continuity errors : sum local = 1.3239e-08, global = 1.6002e-09, cumulative = -2.14667e-07
ExecutionTime = 0.16 s  ClockTime = 0 s

Time = 0.37

Courant Number mean: 0.802814 max: 1.56603
smoothSolver:  Solving for Ux, Initial residual = 2.12631e-06, Final residual = 2.12631e-06, No Iterations 0
smoothSolver:  Solving for Uy, Initial residual = 9.47196e-06, Final residual = 9.47196e-06, No Iterations 0
DICPCG:  Solving for p, Initial residual = 1.23406e-06, Final residual = 7.86837e-07, No Iterations 1
time step continuity errors : sum local = 1.14766e-08, global = 1.44044e-09, cumulative = -2.13227e-07
DICPCG:  Solving for p, Initial residual = 1.04289e-06, Final residual = 6.70745e-07, No Iterations 1
time step continuity errors : sum local = 9.7833e-09, global = 1.32287e-09, cumulative = -2.11904e-07
ExecutionTime = 0.16 s  ClockTime = 0 s

Time = 0.375

Courant Number mean: 0.802813 max: 1.56603
smoothSolver:  Solving for Ux, Initial residual = 2.0399e-06, Final residual = 2.0399e-06, No Iterations 0
smoothSolver:  Solving for Uy, Initial residual = 9.39328e-06, Final residual = 9.39328e-06, No Iterations 0
DICPCG:  Solving for p, Initial residual = 8.216e-07, Final residual = 8.216e-07, No Iterations 0
time step continuity errors : sum local = 1.19836e-08, global = 1.19402e-09, cumulative = -2.1071e-07
DICPCG:  Solving for p, Initial residual = 9.88036e-07, Final residual = 9.88036e-07, No Iterations 0
time step continuity errors : sum local = 1.44112e-08, global = 1.08912e-09, cumulative = -2.09621e-07
ExecutionTime = 0.16 s  ClockTime = 0 s

Time = 0.38

Courant Number mean: 0.802813 max: 1.56603
smoothSolver:  Solving for Ux, Initial residual = 1.96831e-06, Final residual = 1.96831e-06, No Iterations 0
smoothSolver:  Solving for Uy, Initial residual = 9.16138e-06, Final residual = 9.16138e-06, No Iterations 0
DICPCG:  Solving for p, Initial residual = 1.21815e-06, Final residual = 9.76576e-07, No Iterations 2
time step continuity errors : sum local = 1.42441e-08, global = 9.58858e-10, cumulative = -2.08662e-07
DICPCG:  Solving for p, Initial residual = 1.38936e-06, Final residual = 8.62622e-07, No Iterations 1
time step continuity errors : sum local = 1.2582e-08, global = 9.47821e-10, cumulative = -2.07714e-07
ExecutionTime = 0.17 s  ClockTime = 0 s

Time = 0.385

Courant Number mean: 0.802813 max: 1.56603
smoothSolver:  Solving for Ux, Initial residual = 1.88482e-06, Final residual = 1.88482e-06, No Iterations 0
smoothSolver:  Solving for Uy, Initial residual = 8.90967e-06, Final residual = 8.90967e-06, No Iterations 0
DICPCG:  Solving for p, Initial residual = 1.37505e-06, Final residual = 7.42452e-07, No Iterations 1
time step continuity errors : sum local = 1.08292e-08, global = 9.00496e-10, cumulative = -2.06814e-07
DICPCG:  Solving for p, Initial residual = 9.80578e-07, Final residual = 9.80578e-07, No Iterations 0
time step continuity errors : sum local = 1.43024e-08, global = 8.90939e-10, cumulative = -2.05923e-07
ExecutionTime = 0.17 s  ClockTime = 0 s

Time = 0.39

Courant Number mean: 0.802813 max: 1.56603
smoothSolver:  Solving for Ux, Initial residual = 1.81761e-06, Final residual = 1.81761e-06, No Iterations 0
smoothSolver:  Solving for Uy, Initial residual = 8.5631e-06, Final residual = 8.5631e-06, No Iterations 0
DICPCG:  Solving for p, Initial residual = 1.33823e-06, Final residual = 9.62714e-07, No Iterations 1
time step continuity errors : sum local = 1.40419e-08, global = 9.60729e-10, cumulative = -2.04962e-07
DICPCG:  Solving for p, Initial residual = 1.23262e-06, Final residual = 7.51784e-07, No Iterations 1
time step continuity errors : sum local = 1.09653e-08, global = 1.03001e-09, cumulative = -2.03932e-07
ExecutionTime = 0.17 s  ClockTime = 0 s

Time = 0.395

Courant Number mean: 0.802812 max: 1.56603
smoothSolver:  Solving for Ux, Initial residual = 1.7591e-06, Final residual = 1.7591e-06, No Iterations 0
smoothSolver:  Solving for Uy, Initial residual = 8.0661e-06, Final residual = 8.0661e-06, No Iterations 0
DICPCG:  Solving for p, Initial residual = 9.30936e-07, Final residual = 9.30936e-07, No Iterations 0
time step continuity errors : sum local = 1.35784e-08, global = 1.1309e-09, cumulative = -2.02801e-07
DICPCG:  Solving for p, Initial residual = 1.10096e-06, Final residual = 8.55419e-07, No Iterations 1
time step continuity errors : sum local = 1.24769e-08, global = 1.25407e-09, cumulative = -2.01547e-07
ExecutionTime = 0.17 s  ClockTime = 0 s

Time = 0.4

Courant Number mean: 0.802812 max: 1.56603
smoothSolver:  Solving for Ux, Initial residual = 1.69711e-06, Final residual = 1.69711e-06, No Iterations 0
smoothSolver:  Solving for Uy, Initial residual = 7.74158e-06, Final residual = 7.74158e-06, No Iterations 0
DICPCG:  Solving for p, Initial residual = 1.1786e-06, Final residual = 7.39673e-07, No Iterations 1
time step continuity errors : sum local = 1.07887e-08, global = 1.33928e-09, cumulative = -2.00208e-07
DICPCG:  Solving for p, Initial residual = 9.58007e-07, Final residual = 9.58007e-07, No Iterations 0
time step continuity errors : sum local = 1.39732e-08, global = 1.42986e-09, cumulative = -1.98778e-07
ExecutionTime = 0.17 s  ClockTime = 0 s

Time = 0.405

Courant Number mean: 0.802812 max: 1.56603
smoothSolver:  Solving for Ux, Initial residual = 1.63544e-06, Final residual = 1.63544e-06, No Iterations 0
smoothSolver:  Solving for Uy, Initial residual = 7.50399e-06, Final residual = 7.50399e-06, No Iterations 0
DICPCG:  Solving for p, Initial residual = 1.26993e-06, Final residual = 9.50588e-07, No Iterations 8
time step continuity errors : sum local = 1.3865e-08, global = 1.72988e-09, cumulative = -1.97048e-07
DICPCG:  Solving for p, Initial residual = 1.50835e-06, Final residual = 5.70647e-07, No Iterations 5
time step continuity errors : sum local = 8.32328e-09, global = 2.18576e-09, cumulative = -1.94862e-07
ExecutionTime = 0.17 s  ClockTime = 0 s

Time = 0.41

Courant Number mean: 0.802812 max: 1.56603
smoothSolver:  Solving for Ux, Initial residual = 1.55448e-06, Final residual = 1.55448e-06, No Iterations 0
smoothSolver:  Solving for Uy, Initial residual = 7.96649e-06, Final residual = 7.96649e-06, No Iterations 0
DICPCG:  Solving for p, Initial residual = 1.11772e-06, Final residual = 8.94314e-07, No Iterations 3
time step continuity errors : sum local = 1.30442e-08, global = 2.61259e-09, cumulative = -1.9225e-07
DICPCG:  Solving for p, Initial residual = 1.45967e-06, Final residual = 8.58899e-07, No Iterations 2
time step continuity errors : sum local = 1.25276e-08, global = 2.18165e-09, cumulative = -1.90068e-07
ExecutionTime = 0.17 s  ClockTime = 0 s

Time = 0.415

Courant Number mean: 0.802812 max: 1.56603
smoothSolver:  Solving for Ux, Initial residual = 1.49764e-06, Final residual = 1.49764e-06, No Iterations 0
smoothSolver:  Solving for Uy, Initial residual = 6.71095e-06, Final residual = 6.71095e-06, No Iterations 0
DICPCG:  Solving for p, Initial residual = 1.58806e-06, Final residual = 8.69479e-07, No Iterations 2
time step continuity errors : sum local = 1.26819e-08, global = 2.31485e-09, cumulative = -1.87753e-07
DICPCG:  Solving for p, Initial residual = 1.43711e-06, Final residual = 9.33561e-07, No Iterations 1
time step continuity errors : sum local = 1.36166e-08, global = 2.08084e-09, cumulative = -1.85672e-07
ExecutionTime = 0.17 s  ClockTime = 0 s

Time = 0.42

Courant Number mean: 0.802812 max: 1.56603
smoothSolver:  Solving for Ux, Initial residual = 1.44398e-06, Final residual = 1.44398e-06, No Iterations 0
smoothSolver:  Solving for Uy, Initial residual = 6.38416e-06, Final residual = 6.38416e-06, No Iterations 0
DICPCG:  Solving for p, Initial residual = 1.29739e-06, Final residual = 7.61092e-07, No Iterations 1
time step continuity errors : sum local = 1.1101e-08, global = 1.8788e-09, cumulative = -1.83794e-07
DICPCG:  Solving for p, Initial residual = 9.37919e-07, Final residual = 9.37919e-07, No Iterations 0
time step continuity errors : sum local = 1.36802e-08, global = 1.7291e-09, cumulative = -1.82065e-07
ExecutionTime = 0.17 s  ClockTime = 0 s

Time = 0.425

Courant Number mean: 0.802811 max: 1.56603
smoothSolver:  Solving for Ux, Initial residual = 1.38898e-06, Final residual = 1.38898e-06, No Iterations 0
smoothSolver:  Solving for Uy, Initial residual = 6.20444e-06, Final residual = 6.20444e-06, No Iterations 0
DICPCG:  Solving for p, Initial residual = 1.2261e-06, Final residual = 9.7232e-07, No Iterations 1
time step continuity errors : sum local = 1.41819e-08, global = 1.57674e-09, cumulative = -1.80488e-07
DICPCG:  Solving for p, Initial residual = 1.17324e-06, Final residual = 9.23911e-07, No Iterations 8
time step continuity errors : sum local = 1.34759e-08, global = 2.12417e-10, cumulative = -1.80275e-07
ExecutionTime = 0.17 s  ClockTime = 0 s

Time = 0.43

Courant Number mean: 0.802811 max: 1.56602
smoothSolver:  Solving for Ux, Initial residual = 1.4033e-06, Final residual = 1.4033e-06, No Iterations 0
smoothSolver:  Solving for Uy, Initial residual = 1.02483e-05, Final residual = 6.23782e-06, No Iterations 1
DICPCG:  Solving for p, Initial residual = 4.314e-06, Final residual = 8.71276e-07, No Iterations 21
time step continuity errors : sum local = 1.27081e-08, global = 1.88279e-09, cumulative = -1.78393e-07
DICPCG:  Solving for p, Initial residual = 3.7158e-06, Final residual = 9.6272e-07, No Iterations 20
time step continuity errors : sum local = 1.40419e-08, global = 4.88089e-10, cumulative = -1.77905e-07
ExecutionTime = 0.17 s  ClockTime = 0 s

Time = 0.435

Courant Number mean: 0.802811 max: 1.56602
smoothSolver:  Solving for Ux, Initial residual = 1.29899e-06, Final residual = 1.29899e-06, No Iterations 0
smoothSolver:  Solving for Uy, Initial residual = 5.33532e-06, Final residual = 5.33532e-06, No Iterations 0
DICPCG:  Solving for p, Initial residual = 1.54665e-06, Final residual = 9.75727e-07, No Iterations 3
time step continuity errors : sum local = 1.42315e-08, global = -8.52071e-10, cumulative = -1.78757e-07
DICPCG:  Solving for p, Initial residual = 1.42557e-06, Final residual = 6.36814e-07, No Iterations 2
time step continuity errors : sum local = 9.28829e-09, global = -1.8803e-09, cumulative = -1.80637e-07
ExecutionTime = 0.17 s  ClockTime = 0 s

Time = 0.44

Courant Number mean: 0.802811 max: 1.56602
smoothSolver:  Solving for Ux, Initial residual = 1.2391e-06, Final residual = 1.2391e-06, No Iterations 0
smoothSolver:  Solving for Uy, Initial residual = 5.45322e-06, Final residual = 5.45322e-06, No Iterations 0
DICPCG:  Solving for p, Initial residual = 1.2137e-06, Final residual = 7.52509e-07, No Iterations 1
time step continuity errors : sum local = 1.09758e-08, global = -2.87797e-09, cumulative = -1.83515e-07
DICPCG:  Solving for p, Initial residual = 9.5513e-07, Final residual = 9.5513e-07, No Iterations 0
time step continuity errors : sum local = 1.39311e-08, global = -3.75938e-09, cumulative = -1.87274e-07
ExecutionTime = 0.18 s  ClockTime = 0 s

Time = 0.445

Courant Number mean: 0.802811 max: 1.56602
smoothSolver:  Solving for Ux, Initial residual = 1.18775e-06, Final residual = 1.18775e-06, No Iterations 0
smoothSolver:  Solving for Uy, Initial residual = 5.2428e-06, Final residual = 5.2428e-06, No Iterations 0
DICPCG:  Solving for p, Initial residual = 1.26094e-06, Final residual = 7.5836e-07, No Iterations 1
time step continuity errors : sum local = 1.10611e-08, global = -4.77006e-09, cumulative = -1.92044e-07
DICPCG:  Solving for p, Initial residual = 9.78385e-07, Final residual = 9.78385e-07, No Iterations 0
time step continuity errors : sum local = 1.42703e-08, global = -5.57397e-09, cumulative = -1.97618e-07
ExecutionTime = 0.18 s  ClockTime = 0 s

Time = 0.45

Courant Number mean: 0.80281 max: 1.56602
smoothSolver:  Solving for Ux, Initial residual = 1.14311e-06, Final residual = 1.14311e-06, No Iterations 0
smoothSolver:  Solving for Uy, Initial residual = 5.10762e-06, Final residual = 5.10762e-06, No Iterations 0
DICPCG:  Solving for p, Initial residual = 1.30106e-06, Final residual = 8.40272e-07, No Iterations 1
time step continuity errors : sum local = 1.22558e-08, global = -6.33961e-09, cumulative = -2.03958e-07
DICPCG:  Solving for p, Initial residual = 1.03445e-06, Final residual = 8.66705e-07, No Iterations 1
time step continuity errors : sum local = 1.26414e-08, global = -6.96024e-09, cumulative = -2.10918e-07
ExecutionTime = 0.18 s  ClockTime = 0 s

Time = 0.455

Courant Number mean: 0.80281 max: 1.56602
smoothSolver:  Solving for Ux, Initial residual = 1.09433e-06, Final residual = 1.09433e-06, No Iterations 0
smoothSolver:  Solving for Uy, Initial residual = 4.97836e-06, Final residual = 4.97836e-06, No Iterations 0
DICPCG:  Solving for p, Initial residual = 1.04887e-06, Final residual = 8.50504e-07, No Iterations 1
time step continuity errors : sum local = 1.24051e-08, global = -7.55834e-09, cumulative = -2.18477e-07
DICPCG:  Solving for p, Initial residual = 1.03e-06, Final residual = 8.63342e-07, No Iterations 1
time step continuity errors : sum local = 1.25923e-08, global = -8.03884e-09, cumulative = -2.26515e-07
ExecutionTime = 0.18 s  ClockTime = 0 s

Time = 0.46

Courant Number mean: 0.80281 max: 1.56602
smoothSolver:  Solving for Ux, Initial residual = 1.05006e-06, Final residual = 1.05006e-06, No Iterations 0
smoothSolver:  Solving for Uy, Initial residual = 4.84709e-06, Final residual = 4.84709e-06, No Iterations 0
DICPCG:  Solving for p, Initial residual = 1.0436e-06, Final residual = 8.76906e-07, No Iterations 1
time step continuity errors : sum local = 1.27902e-08, global = -8.51501e-09, cumulative = -2.3503e-07
DICPCG:  Solving for p, Initial residual = 1.04672e-06, Final residual = 8.82558e-07, No Iterations 1
time step continuity errors : sum local = 1.28726e-08, global = -8.89744e-09, cumulative = -2.43928e-07
ExecutionTime = 0.18 s  ClockTime = 0 s

Time = 0.465

Courant Number mean: 0.80281 max: 1.56602
smoothSolver:  Solving for Ux, Initial residual = 1.00897e-06, Final residual = 1.00897e-06, No Iterations 0
smoothSolver:  Solving for Uy, Initial residual = 4.70346e-06, Final residual = 4.70346e-06, No Iterations 0
DICPCG:  Solving for p, Initial residual = 1.06278e-06, Final residual = 9.02785e-07, No Iterations 1
time step continuity errors : sum local = 1.31676e-08, global = -9.27534e-09, cumulative = -2.53203e-07
DICPCG:  Solving for p, Initial residual = 1.07548e-06, Final residual = 9.14968e-07, No Iterations 1
time step continuity errors : sum local = 1.33453e-08, global = -9.57699e-09, cumulative = -2.6278e-07
ExecutionTime = 0.18 s  ClockTime = 0 s

Time = 0.47

Courant Number mean: 0.80281 max: 1.56602
smoothSolver:  Solving for Ux, Initial residual = 9.71011e-07, Final residual = 9.71011e-07, No Iterations 0
smoothSolver:  Solving for Uy, Initial residual = 4.53583e-06, Final residual = 4.53583e-06, No Iterations 0
DICPCG:  Solving for p, Initial residual = 1.09685e-06, Final residual = 9.37986e-07, No Iterations 1
time step continuity errors : sum local = 1.36811e-08, global = -9.87655e-09, cumulative = -2.72657e-07
DICPCG:  Solving for p, Initial residual = 1.11779e-06, Final residual = 9.50282e-07, No Iterations 1
time step continuity errors : sum local = 1.38604e-08, global = -1.01213e-08, cumulative = -2.82778e-07
ExecutionTime = 0.18 s  ClockTime = 0 s

Time = 0.475

Courant Number mean: 0.80281 max: 1.56602
smoothSolver:  Solving for Ux, Initial residual = 9.35502e-07, Final residual = 9.35502e-07, No Iterations 0
smoothSolver:  Solving for Uy, Initial residual = 4.34278e-06, Final residual = 4.34278e-06, No Iterations 0
DICPCG:  Solving for p, Initial residual = 1.14471e-06, Final residual = 9.74057e-07, No Iterations 1
time step continuity errors : sum local = 1.42072e-08, global = -1.03737e-08, cumulative = -2.93152e-07
DICPCG:  Solving for p, Initial residual = 1.16811e-06, Final residual = 9.91497e-07, No Iterations 1
time step continuity errors : sum local = 1.44616e-08, global = -1.05914e-08, cumulative = -3.03743e-07
ExecutionTime = 0.18 s  ClockTime = 0 s

Time = 0.48

Courant Number mean: 0.802809 max: 1.56602
smoothSolver:  Solving for Ux, Initial residual = 9.01834e-07, Final residual = 9.01834e-07, No Iterations 0
smoothSolver:  Solving for Uy, Initial residual = 4.13505e-06, Final residual = 4.13505e-06, No Iterations 0
DICPCG:  Solving for p, Initial residual = 1.2033e-06, Final residual = 8.6841e-07, No Iterations 22
time step continuity errors : sum local = 1.26663e-08, global = -4.22103e-11, cumulative = -3.03785e-07
DICPCG:  Solving for p, Initial residual = 1.38266e-06, Final residual = 9.6388e-07, No Iterations 31
time step continuity errors : sum local = 1.40599e-08, global = -2.16776e-10, cumulative = -3.04002e-07
ExecutionTime = 0.18 s  ClockTime = 0 s

Time = 0.485

Courant Number mean: 0.80281 max: 1.56602
smoothSolver:  Solving for Ux, Initial residual = 9.19123e-07, Final residual = 9.19123e-07, No Iterations 0
smoothSolver:  Solving for Uy, Initial residual = 4.53939e-06, Final residual = 4.53939e-06, No Iterations 0
DICPCG:  Solving for p, Initial residual = 1.48192e-06, Final residual = 9.90997e-07, No Iterations 4
time step continuity errors : sum local = 1.44545e-08, global = 1.52869e-09, cumulative = -3.02473e-07
DICPCG:  Solving for p, Initial residual = 1.33001e-06, Final residual = 9.05783e-07, No Iterations 2
time step continuity errors : sum local = 1.32116e-08, global = 2.8211e-09, cumulative = -2.99652e-07
ExecutionTime = 0.18 s  ClockTime = 0 s

Time = 0.49

Courant Number mean: 0.80281 max: 1.56602
smoothSolver:  Solving for Ux, Initial residual = 8.53055e-07, Final residual = 8.53055e-07, No Iterations 0
smoothSolver:  Solving for Uy, Initial residual = 4.37225e-06, Final residual = 4.37225e-06, No Iterations 0
DICPCG:  Solving for p, Initial residual = 1.63253e-06, Final residual = 9.13531e-07, No Iterations 2
time step continuity errors : sum local = 1.33246e-08, global = 4.46736e-09, cumulative = -2.95185e-07
DICPCG:  Solving for p, Initial residual = 1.50089e-06, Final residual = 8.74721e-07, No Iterations 1
time step continuity errors : sum local = 1.27585e-08, global = 5.62695e-09, cumulative = -2.89558e-07
ExecutionTime = 0.18 s  ClockTime = 0 s

Time = 0.495

Courant Number mean: 0.80281 max: 1.56602
smoothSolver:  Solving for Ux, Initial residual = 8.15195e-07, Final residual = 8.15195e-07, No Iterations 0
smoothSolver:  Solving for Uy, Initial residual = 4.17466e-06, Final residual = 4.17466e-06, No Iterations 0
DICPCG:  Solving for p, Initial residual = 1.20885e-06, Final residual = 8.59655e-07, No Iterations 1
time step continuity errors : sum local = 1.25388e-08, global = 6.97403e-09, cumulative = -2.82584e-07
DICPCG:  Solving for p, Initial residual = 1.05505e-06, Final residual = 9.49433e-07, No Iterations 27
time step continuity errors : sum local = 1.38482e-08, global = 1.60997e-10, cumulative = -2.82423e-07
ExecutionTime = 0.18 s  ClockTime = 0 s

Time = 0.5

Courant Number mean: 0.802809 max: 1.56602
smoothSolver:  Solving for Ux, Initial residual = 1.05396e-06, Final residual = 1.05396e-06, No Iterations 0
smoothSolver:  Solving for Uy, Initial residual = 7.34139e-06, Final residual = 7.34139e-06, No Iterations 0
DICPCG:  Solving for p, Initial residual = 1.44617e-06, Final residual = 9.78861e-07, No Iterations 30
time step continuity errors : sum local = 1.42767e-08, global = 6.5726e-10, cumulative = -2.81766e-07
DICPCG:  Solving for p, Initial residual = 1.3586e-06, Final residual = 7.69815e-07, No Iterations 5
time step continuity errors : sum local = 1.12282e-08, global = 6.57246e-11, cumulative = -2.817e-07
ExecutionTime = 0.19 s  ClockTime = 0 s

End

